*SPEF "IEEE 1481-1998"
*DESIGN "lfsr4"
*DATE "Thu Oct  2 16:24:07 2025"
*VENDOR "Cadence Design Systems, Inc."
*PROGRAM "Innovus"
*VERSION "18.10-p002_1"
*DESIGN_FLOW "COUPLING C" "PIN_CAP NONE" "NAME_SCOPE LOCAL"
*DIVIDER /
*DELIMITER :
*BUS_DELIMITER []
*T_UNIT 1 NS
*C_UNIT 1 PF
*R_UNIT 1 OHM
*L_UNIT 1 HENRY

// MMMC spef file for corner 'tsmc65_rc_corner_typ'

*NAME_MAP

*1 FE_PHN0_rst
*2 clk
*3 rst
*4 data_out[3]
*5 data_out[2]
*6 data_out[1]
*7 data_out[0]
*8 n_0
*9 n_1
*10 FE_PHC0_rst
*11 sreg_reg\[1\]
*12 g16__8780
*13 sreg_reg\[4\]
*14 sreg_reg\[3\]
*15 sreg_reg\[2\]
*16 g20


*PORTS

*2 I *C 17.4 7.7
*3 I *C 0 8.5
*4 O *C 8.5 17
*5 O *C 8.9 17
*6 O *C 8.7 0
*7 O *C 8.7 0


*D_NET *1 0.00036266

*CONN
*I *10:Z O *C 6.7 6.7 *L 0 *D DEL01BWP7T
*I *16:I I *C 5.9 8.5 *L 0.000563 *D INVD0BWP7T

*CAP
1 *10:Z 3.048e-05
2 *16:I 6.256e-05
3 *1:2 2.36e-05
4 *1:3 6.693e-05
5 *1:4 9.651e-05
6 *1:5 8.258e-05

*RES
1 *1:5 *16:I 0.75
2 *1:4 *1:5 0.924311
3 *1:4 *1:3 0.97561
4 *1:2 *1:3 0.163934
5 *10:Z *1:2 1.5
*END

*D_NET *2 0.00173172

*CONN
*P *2 I *C 17.4 7.7 *L 0
*I *15:CP I *C 11.5 5.9 *L 0.000581 *D DFCNQD1BWP7T
*I *14:CP I *C 11.5 6.9 *L 0.000581 *D DFCNQD1BWP7T
*I *13:CP I *C 10.5 9.7 *L 0.000581 *D DFCNQD1BWP7T
*I *11:CP I *C 11.5 8.7 *L 0.000582 *D DFSNQD1BWP7T

*CAP
1 *2 0.00028692
2 *15:CP 3.048e-05
3 *14:CP 3.048e-05
4 *13:CP 3.048e-05
5 *11:CP 6.897e-05
6 *2:5 4.46e-05
7 *2:6 4.46e-05
8 *2:14 0.00010411
9 *2:15 5.586e-05
10 *2:16 7.471e-05
11 *2:17 5.586e-05
12 *2:18 5.586e-05
13 *2:19 0.00011716
14 *2:20 5.586e-05
15 *2:21 5.586e-05
16 *2:22 0.00030015
17 *2:23 0.00010112
18 *2:24 0.00010692
19 *2:25 5.586e-05
20 *2:26 5.586e-05

*RES
1 *2:18 *15:CP 1.5
2 *2:9 *2:18 0.527923
3 *2:26 *14:CP 1.5
4 *2:13 *2:26 0.527923
5 *2:17 *2:18 0.75
6 *2:8 *2:17 0.527923
7 *2:25 *2:26 0.75
8 *2:12 *2:25 0.527923
9 *2:16 *2:17 0.75
10 *2:24 *2:25 0.75
11 *2:16 *2:24 0.983607
12 *2:22 *2 4.59016
13 *2:21 *11:CP 0.75
14 *2:11 *2:21 0.527923
15 *2:24 *2:23 0.491803
16 *2:23 *2:22 0.75
17 *2:20 *2:21 0.75
18 *2:10 *2:20 0.527923
19 *2:23 *2:19 0.655738
20 *2:19 *2:20 0.75
21 *2:19 *2:14 0.983607
22 *2:5 *2:14 0.75
23 *2:6 *2:5 0.953496
24 *2:15 *13:CP 1.5
25 *2:15 *2:6 0.75
26 *2:7 *2:15 0.527923
*END

*D_NET *3 0.00082637

*CONN
*I *10:I I *C 5.3 7.1 *L 0.000611 *D DEL01BWP7T
*P *3 I *C 0 8.5 *L 0

*CAP
1 *10:I 6.256e-05
2 *3 0.00026816
3 *3:2 0.00010713
4 *3:3 0.00010713
5 *3:4 0.00028139

*RES
1 *3:3 *10:I 0.75
2 *3:3 *3:2 1.2223
3 *3:4 *3:2 0.75
4 *3 *3:4 4.09836
*END

*D_NET *4 0.00159067

*CONN
*P *4 O *C 8.5 17 *L 0
*I *13:Q O *C 5.9 9.7 *L 0 *D DFCNQD1BWP7T
*I *12:A2 I *C 10.7 11.1 *L 0.000601 *D CKXOR2D0BWP7T

*CAP
1 *4 0.00033187
2 *13:Q 6.897e-05
3 *12:A2 6.897e-05
4 *4:3 9.487e-05
5 *4:4 8.899e-05
6 *4:6 0.0003745
7 *4:7 5.586e-05
8 *4:8 0.00014643
9 *4:9 0.00024744
10 *4:10 0.00011277

*RES
1 *4:3 *12:A2 0.75
2 *4:4 *4:3 0.655738
3 *4:6 *4 5.2459
4 *4:10 *4:4 0.75
5 *4:9 *4:6 0.75
6 *4:9 *4:10 1.95019
7 *4:8 *4:9 2.13115
8 *4:7 *13:Q 0.75
9 *4:7 *4:8 0.75
10 *4:5 *4:7 0.527923
*END

*D_NET *5 0.00198158

*CONN
*P *5 O *C 8.9 17 *L 0
*I *14:Q O *C 6.9 6.9 *L 0 *D DFCNQD1BWP7T
*I *13:D I *C 9.5 9.9 *L 0.000541 *D DFCNQD1BWP7T
*I *12:A1 I *C 11.9 11.3 *L 0.00126 *D CKXOR2D0BWP7T

*CAP
1 *5 2.828e-05
2 *14:Q 6.897e-05
3 *13:D 3.048e-05
4 *12:A1 3.048e-05
5 *5:4 0.00023055
6 *5:5 0.00019706
7 *5:6 0.00038121
8 *5:7 0.00015441
9 *5:8 0.00015441
10 *5:9 0.00031867
11 *5:12 5.586e-05
12 *5:13 0.00013767
13 *5:14 0.00013767
14 *5:15 5.586e-05

*RES
1 *5:15 *12:A1 1.5
2 *5:11 *5:15 0.527923
3 *5:7 *5:15 0.75
4 *5 *5:9 0.487805
5 *5:8 *5:7 2.13115
6 *5:6 *5:9 4.59016
7 *5:6 *5:8 0.75
8 *5:4 *13:D 1.5
9 *5:4 *5:6 1.02203
10 *5:5 *5:4 2.45902
11 *5:14 *5:5 0.75
12 *5:13 *5:14 1.96721
13 *5:12 *14:Q 0.75
14 *5:12 *5:13 0.75
15 *5:10 *5:12 0.527923
*END

*D_NET *6 0.00138752

*CONN
*P *6 O *C 8.7 0 *L 0
*I *15:Q O *C 6.9 5.9 *L 0 *D DFCNQD1BWP7T
*I *14:D I *C 10.5 7.1 *L 0.000541 *D DFCNQD1BWP7T

*CAP
1 *6 0.00026102
2 *15:Q 6.897e-05
3 *14:D 3.048e-05
4 *6:4 0.00030365
5 *6:5 5.586e-05
6 *6:6 0.00010545
7 *6:7 0.00020936
8 *6:8 0.00014507
9 *6:9 0.00010383
10 *6:10 0.00010383

*RES
1 *6:10 *14:D 1.5
2 *6:9 *6:10 1.47541
3 *6 *6:4 4.09836
4 *6:8 *6:9 0.75
5 *6:7 *6:4 0.75
6 *6:7 *6:8 1.51434
7 *6:6 *6:7 1.47541
8 *6:5 *15:Q 0.75
9 *6:5 *6:6 0.75
10 *6:3 *6:5 0.527923
*END

*D_NET *7 0.00150159

*CONN
*P *7 O *C 8.7 0 *L 0
*I *15:D I *C 10.5 5.7 *L 0.000541 *D DFCNQD1BWP7T
*I *11:Q O *C 7.1 8.7 *L 0 *D DFSNQD1BWP7T

*CAP
1 *7 0.0002774
2 *15:D 3.048e-05
3 *11:Q 3.048e-05
4 *7:3 0.00011055
5 *7:4 0.00011055
6 *7:7 5.586e-05
7 *7:8 9.631e-05
8 *7:9 9.631e-05
9 *7:10 0.00018681
10 *7:11 0.00045098
11 *7:12 5.586e-05

*RES
1 *7:12 *15:D 1.5
2 *7:6 *7:12 0.527923
3 *7:3 *7:12 0.75
4 *7:4 *7:3 1.31148
5 *7 *7:11 4.42623
6 *7:11 *7:4 0.75
7 *7:11 *7:10 2.29508
8 *7:9 *7:10 0.75
9 *7:8 *7:9 1.31148
10 *7:7 *11:Q 1.5
11 *7:7 *7:8 0.75
12 *7:5 *7:7 0.0609756
*END

*D_NET *8 0.00102963

*CONN
*I *16:ZN O *C 6.3 8.9 *L 0 *D INVD0BWP7T
*I *15:CDN I *C 7.9 5.7 *L 0.00142 *D DFCNQD1BWP7T
*I *14:CDN I *C 7.9 7.1 *L 0.00142 *D DFCNQD1BWP7T
*I *13:CDN I *C 6.9 9.9 *L 0.00142 *D DFCNQD1BWP7T
*I *11:SDN I *C 8.7 8.5 *L 0.00141 *D DFSNQD1BWP7T

*CAP
1 *16:ZN 2.974e-05
2 *15:CDN 3.048e-05
3 *14:CDN 3.048e-05
4 *13:CDN 3.048e-05
5 *11:SDN 3.048e-05
6 *8:5 0.00018007
7 *8:6 0.00013973
8 *8:7 0.00010717
9 *8:8 0.00011097
10 *8:9 8.545e-05
11 *8:10 7.731e-05
12 *8:11 3.398e-05
13 *8:12 7.786e-05
14 *8:13 6.543e-05

*RES
1 *16:ZN *8:12 0.440653
2 *8:13 *13:CDN 1.5
3 *8:7 *8:12 0.75
4 *8:7 *8:13 0.819672
5 *8:11 *11:SDN 1.5
6 *8:8 *8:7 0.655738
7 *8:10 *8:11 0.327869
8 *8:8 *8:5 1.21951
9 *8:5 *8:10 0.97561
10 *8:6 *14:CDN 1.5
11 *8:6 *8:5 0.819672
12 *8:9 *15:CDN 1.5
13 *8:9 *8:6 1.14754
*END

*D_NET *9 0.00039177

*CONN
*I *12:Z O *C 10.3 11.1 *L 0 *D CKXOR2D0BWP7T
*I *11:D I *C 10.7 8.5 *L 0.000678 *D DFSNQD1BWP7T

*CAP
1 *12:Z 6.897e-05
2 *11:D 3.048e-05
3 *9:2 0.00012036
4 *9:3 8.599e-05
5 *9:4 4.344e-05
6 *9:5 4.253e-05

*RES
1 *9:5 *11:D 1.5
2 *9:5 *9:4 0.491803
3 *9:3 *9:4 0.243902
4 *9:3 *9:2 1.68176
5 *12:Z *9:2 0.75
*END

