*SPEF "IEEE 1481-1998"
*DESIGN "lfsr4"
*DATE "Wed Oct  8 13:45:45 2025"
*VENDOR "Cadence Design Systems, Inc."
*PROGRAM "Innovus"
*VERSION "18.10-p002_1"
*DESIGN_FLOW "COUPLING C" "PIN_CAP NONE" "NAME_SCOPE LOCAL"
*DIVIDER /
*DELIMITER :
*BUS_DELIMITER []
*T_UNIT 1 NS
*C_UNIT 1 PF
*R_UNIT 1 OHM
*L_UNIT 1 HENRY

// MMMC spef file for corner 'tsmc65_rc_corner_typ'

*NAME_MAP

*1 FE_PHN1_rst
*2 FE_PHN0_rst
*3 clk
*4 rst
*5 data_out[3]
*6 data_out[2]
*7 data_out[1]
*8 data_out[0]
*9 n_0
*10 n_1
*11 FE_PHC1_rst
*12 FE_PHC0_rst
*13 sreg_reg\[1\]
*14 g16__8780
*15 sreg_reg\[4\]
*16 sreg_reg\[3\]
*17 sreg_reg\[2\]
*18 g20


*PORTS

*3 I *C 21.3 11.4
*4 I *C 6.1 11.4
*5 O *C 33.1 11.4
*6 O *C 28.1 11.4
*7 O *C 13.3 11.4
*8 O *C 17.9 11.4


*D_NET *1 0.00091566

*CONN
*I *11:Z O *C 12.9 5.3 *L 0 *D BUFFD1BWP7T
*I *12:I I *C 6.3 5.7 *L 0.000612 *D CKBD0BWP7T

*CAP
1 *11:Z 3.048e-05
2 *12:I 3.048e-05
3 *1:3 3.277e-05
4 *1:4 3.277e-05
5 *1:5 0.00037081
6 *1:6 0.00037081
7 *1:7 2.377e-05
8 *1:8 2.377e-05

*RES
1 *1:3 *12:I 1.5
2 *1:4 *1:3 0.327869
3 *1:5 *1:4 1.5
4 *1:5 *1:6 6.06557
5 *1:8 *11:Z 1.5
6 *1:7 *1:6 1.5
7 *1:7 *1:8 0.163934
8 *1:2 *1:7 0.287039
*END

*D_NET *2 2.372e-05

*CONN
*I *12:Z O *C 6.7 6.1 *L 0 *D CKBD0BWP7T
*I *18:I I *C 6.9 5.7 *L 0.000563 *D INVD0BWP7T

*CAP
1 *12:Z 1.186e-05
2 *18:I 1.186e-05

*RES
1 *12:Z *18:I 0.19544
*END

*D_NET *3 0.00278927

*CONN
*P *3 I *C 21.3 11.4 *L 0
*I *17:CP I *C 12.1 5.9 *L 0.000581 *D DFCNQD1BWP7T
*I *16:CP I *C 13.5 5.9 *L 0.000581 *D DFCNQD1BWP7T
*I *15:CP I *C 25.5 5.9 *L 0.000581 *D DFCNQD1BWP7T
*I *13:CP I *C 23.9 5.9 *L 0.000582 *D DFSNQD1BWP7T

*CAP
1 *3 5.586e-05
2 *17:CP 3.048e-05
3 *16:CP 3.048e-05
4 *15:CP 3.048e-05
5 *13:CP 6.897e-05
6 *3:5 9.872e-05
7 *3:6 0.00022398
8 *3:7 0.0004906
9 *3:8 0.00043514
10 *3:9 8.156e-05
11 *3:15 5.586e-05
12 *3:16 5.586e-05
13 *3:17 5.586e-05
14 *3:18 5.586e-05
15 *3:19 5.586e-05
16 *3:20 0.00027965
17 *3:21 0.00030905
18 *3:5 *9:30 1.69e-05
19 *3:6 *9:29 1.69e-05
20 *3:6 *9:30 2.324e-05
21 *3:7 *9:29 2.324e-05
22 *3:6 *9:28 7.8e-06
23 *3:7 *9:27 7.8e-06
24 *3:7 *9:28 7.8e-06
25 *3:8 *9:27 7.8e-06
26 *3:7 *9:11 7.407e-05
27 *3:8 *9:12 7.407e-05
28 *3:7 *9:12 1.169e-05
29 *3:8 *9:23 1.169e-05
30 *3:7 *9:7 3.169e-05
31 *3:8 *9:8 3.169e-05
32 *3:8 *9:7 1.431e-05
33 *3:9 *9:8 1.431e-05

*RES
1 *3:17 *15:CP 1.5
2 *3:12 *3:17 0.527923
3 *3:14 *3:19 0.527923
4 *3:19 *3 0.75
5 *3:18 *13:CP 0.75
6 *3:13 *3:18 0.527923
7 *3:5 *3:17 0.75
8 *3:20 *3:19 0.75
9 *3:6 *3:18 0.75
10 *3:6 *3:5 1.31148
11 *3:21 *3:20 4.2623
12 *3:16 *16:CP 1.5
13 *3:11 *3:16 0.527923
14 *3:7 *3:6 2.13115
15 *3:7 *3:21 0.75
16 *3:8 *3:16 0.75
17 *3:8 *3:7 6.39344
18 *3:9 *3:8 1.18618
19 *3:15 *17:CP 1.5
20 *3:15 *3:9 0.75
21 *3:10 *3:15 0.527923
*END

*D_NET *4 0.00133747

*CONN
*I *11:I I *C 12.3 5.7 *L 0.000605 *D BUFFD1BWP7T
*P *4 I *C 6.1 11.4 *L 0

*CAP
1 *11:I 3.048e-05
2 *4 9.76e-06
3 *4:2 2.299e-05
4 *4:3 0.00038169
5 *4:4 0.00038169
6 *4:5 0.00025543
7 *4:6 0.00025543

*RES
1 *4:6 *11:I 1.5
2 *4:6 *4:5 4.45326
3 *4:4 *4:5 1.5
4 *4:3 *4:4 6.25407
5 *4:2 *4 0.163934
6 *4:2 *4:3 1.5
*END

*D_NET *5 0.00110775

*CONN
*P *5 O *C 33.1 11.4 *L 0
*I *15:Q O *C 30.1 5.9 *L 0 *D DFCNQD1BWP7T
*I *14:A2 I *C 32.1 5.5 *L 0.000601 *D CKXOR2D0BWP7T

*CAP
1 *5 7.07e-05
2 *15:Q 8.761e-05
3 *14:A2 3.048e-05
4 *5:3 0.00031488
5 *5:4 0.00014856
6 *5:5 5.904e-05
7 *5:6 5.295e-05
8 *5:7 0.00030845
9 *5:8 3.508e-05

*RES
1 *15:Q *5:4 1.36808
2 *5:5 *5:4 0.75
3 *5:5 *5:6 0.163934
4 *5:8 *14:A2 1.5
5 *5:6 *5:7 0.731707
6 *5:8 *5:7 0.327869
7 *5:7 *5:3 4.09836
8 *5:3 *5 1.21951
*END

*D_NET *6 0.00293798

*CONN
*P *6 O *C 28.1 11.4 *L 0
*I *16:Q O *C 18.1 5.9 *L 0 *D DFCNQD1BWP7T
*I *15:D I *C 26.5 5.7 *L 0.000541 *D DFCNQD1BWP7T
*I *14:A1 I *C 33.3 5.7 *L 0.00126 *D CKXOR2D0BWP7T

*CAP
1 *6 0.00025516
2 *16:Q 6.897e-05
3 *15:D 3.048e-05
4 *14:A1 3.048e-05
5 *6:4 0.00031692
6 *6:5 0.00031692
7 *6:6 0.00011055
8 *6:7 0.00014851
9 *6:8 5.063e-05
10 *6:9 0.0001767
11 *6:10 0.0001767
12 *6:13 5.827e-05
13 *6:14 5.239e-05
14 *6:15 6.188e-05
15 *6:16 6.279e-05
16 *6:17 0.00013318
17 *6:18 7.489e-05
18 *6:19 4.549e-05
19 *6:20 0.00013318
20 *6:21 8.923e-05
21 *6:22 8.923e-05
22 *6:23 6.906e-05
23 *6:24 0.00031099
24 *6:25 5.239e-05
25 *6:26 2.299e-05

*RES
1 *6:26 *14:A1 1.5
2 *6:12 *6:26 0.287039
3 *6:26 *6:25 0.163934
4 *6:4 *6:25 0.75
5 *6:5 *6:4 4.2623
6 *6:24 *6 4.2623
7 *6:24 *6:5 0.75
8 *6:19 *15:D 1.5
9 *6:23 *6:24 0.75714
10 *6:18 *6:19 0.491803
11 *6:6 *6:23 0.75
12 *6:7 *6:18 0.75
13 *6:7 *6:6 1.31148
14 *6:8 *6:7 0.491803
15 *6:9 *6:8 0.243902
16 *6:10 *6:9 2.70055
17 *6:10 *6:22 0.243902
18 *6:21 *6:22 1.14754
19 *6:20 *6:21 0.243902
20 *6:17 *6:20 2.04406
21 *6:17 *6:16 0.243902
22 *6:13 *16:Q 0.75
23 *6:15 *6:16 0.655738
24 *6:14 *6:13 0.163934
25 *6:14 *6:15 0.75
26 *6:11 *6:14 0.287039
*END

*D_NET *7 0.00171793

*CONN
*P *7 O *C 13.3 11.4 *L 0
*I *17:Q O *C 7.5 5.9 *L 0 *D DFCNQD1BWP7T
*I *16:D I *C 14.5 5.7 *L 0.000541 *D DFCNQD1BWP7T

*CAP
1 *7 0.00022755
2 *17:Q 6.897e-05
3 *16:D 3.048e-05
4 *7:3 0.00024078
5 *7:4 7.679e-05
6 *7:5 4.253e-05
7 *7:6 7.193e-05
8 *7:7 0.00033586
9 *7:8 0.00042197
10 *7:9 8.429e-05
11 *7:10 7.309e-05
12 *7:11 4.369e-05

*RES
1 *7:5 *17:Q 0.75
2 *7:11 *16:D 1.5
3 *7:5 *7:6 0.491803
4 *7:11 *7:10 0.491803
5 *7:7 *7:6 0.75
6 *7:9 *7:10 0.75
7 *7:7 *7:8 4.7541
8 *7:8 *7:9 0.983607
9 *7:3 *7 3.60656
10 *7:8 *7:4 0.487805
11 *7:4 *7:3 0.75
*END

*D_NET *8 0.00191259

*CONN
*P *8 O *C 17.9 11.4 *L 0
*I *17:D I *C 11.1 5.7 *L 0.000541 *D DFCNQD1BWP7T
*I *13:Q O *C 19.5 5.9 *L 0 *D DFSNQD1BWP7T

*CAP
1 *8 0.00020512
2 *17:D 3.048e-05
3 *13:Q 6.259e-05
4 *8:3 7.863e-05
5 *8:4 7.529e-05
6 *8:5 7.508e-05
7 *8:6 6.24e-05
8 *8:7 0.0002545
9 *8:8 0.00044502
10 *8:9 0.00044502
11 *8:10 0.00010393
12 *8:11 7.453e-05

*RES
1 *8:3 *13:Q 0.977199
2 *8:11 *17:D 1.5
3 *8:4 *8:3 0.75
4 *8:11 *8:10 0.983607
5 *8:4 *8:5 0.491803
6 *8:9 *8:10 0.75
7 *8:6 *8:5 0.731707
8 *8:9 *8:8 6.64495
9 *8:6 *8:7 0.327869
10 *8:7 *8:8 0.75
11 *8:7 *8 3.44262
*END

*D_NET *9 0.00350725

*CONN
*I *18:ZN O *C 7.3 6.1 *L 0 *D INVD0BWP7T
*I *17:CDN I *C 8.5 5.7 *L 0.00142 *D DFCNQD1BWP7T
*I *16:CDN I *C 17.1 5.7 *L 0.00142 *D DFCNQD1BWP7T
*I *15:CDN I *C 29.1 5.7 *L 0.00142 *D DFCNQD1BWP7T
*I *13:SDN I *C 21.1 5.7 *L 0.00141 *D DFSNQD1BWP7T

*CAP
1 *18:ZN 6.897e-05
2 *17:CDN 3.048e-05
3 *16:CDN 3.048e-05
4 *15:CDN 3.048e-05
5 *13:SDN 3.048e-05
6 *9:5 0.0002291
7 *9:6 0.00022819
8 *9:7 0.00025773
9 *9:8 0.00025773
10 *9:9 0.00019242
11 *9:10 0.00019333
12 *9:11 0.00018427
13 *9:12 0.00021054
14 *9:13 7.469e-05
15 *9:14 4.529e-05
16 *9:17 2.299e-05
17 *9:18 5.239e-05
18 *9:19 2.299e-05
19 *9:20 0.00012509
20 *9:21 8.046e-05
21 *9:22 4.892e-05
22 *9:23 3.894e-05
23 *9:24 5.239e-05
24 *9:25 5.492e-05
25 *9:26 7.309e-05
26 *9:27 4.627e-05
27 *9:28 4.718e-05
28 *9:29 0.00020122
29 *9:30 0.00020122
30 *9:30 *3:5 1.69e-05
31 *9:29 *3:6 1.69e-05
32 *9:30 *3:6 2.324e-05
33 *9:29 *3:7 2.324e-05
34 *9:28 *3:6 7.8e-06
35 *9:27 *3:7 7.8e-06
36 *9:28 *3:7 7.8e-06
37 *9:27 *3:8 7.8e-06
38 *9:11 *3:7 7.407e-05
39 *9:12 *3:8 7.407e-05
40 *9:12 *3:7 1.169e-05
41 *9:23 *3:8 1.169e-05
42 *9:7 *3:7 3.169e-05
43 *9:8 *3:8 3.169e-05
44 *9:7 *3:8 1.431e-05
45 *9:8 *3:9 1.431e-05

*RES
1 *9:14 *15:CDN 1.5
2 *9:14 *9:13 0.491803
3 *9:9 *9:13 0.75
4 *9:10 *9:9 2.62295
5 *9:20 *18:ZN 0.75
6 *9:10 *9:30 0.243902
7 *9:20 *9:21 1.21951
8 *9:17 *17:CDN 1.5
9 *9:29 *9:30 3.44262
10 *9:21 *9:22 0.163934
11 *9:22 *9:17 0.163934
12 *9:28 *9:29 0.243902
13 *9:6 *9:22 0.75
14 *9:27 *9:28 0.655738
15 *9:6 *9:5 2.78689
16 *9:26 *9:27 0.75
17 *9:8 *9:5 0.243902
18 *9:25 *13:SDN 1.5
19 *9:25 *9:26 0.491803
20 *9:8 *9:7 4.34446
21 *9:16 *9:24 0.287039
22 *9:24 *9:25 0.163934
23 *9:7 *9:23 0.243902
24 *9:11 *9:24 0.75
25 *9:23 *9:12 0.491803
26 *9:12 *9:11 3.11475
27 *9:19 *16:CDN 1.5
28 *9:18 *9:12 0.75
29 *9:18 *9:19 0.163934
30 *9:15 *9:18 0.287039
*END

*D_NET *10 0.00131847

*CONN
*I *14:Z O *C 31.7 5.5 *L 0 *D CKXOR2D0BWP7T
*I *13:D I *C 23.1 5.7 *L 0.000678 *D DFSNQD1BWP7T

*CAP
1 *14:Z 6.897e-05
2 *13:D 3.048e-05
3 *10:4 5.586e-05
4 *10:5 0.00010028
5 *10:6 0.00010119
6 *10:7 0.00044361
7 *10:8 0.0004427
8 *10:9 5.239e-05
9 *10:10 2.299e-05

*RES
1 *10:10 *13:D 1.5
2 *10:3 *10:9 0.287039
3 *10:9 *10:10 0.163934
4 *10:8 *10:9 0.75
5 *10:8 *10:7 5.81657
6 *10:6 *10:7 0.243902
7 *10:6 *10:5 1.31148
8 *10:4 *10:5 0.75
9 *10:4 *14:Z 0.75
10 *10:2 *10:4 0.527923
*END

